/*--------------------------------*- C++ -*----------------------------------*\
| =========                 |                                                 |
| \\      /  F ield         | OpenFOAM: The Open Source CFD Toolbox           |
|  \\    /   O peration     | Version:  dev                                   |
|   \\  /    A nd           | Web:      www.OpenFOAM.org                      |
|    \\/     M anipulation  |                                                 |
\*---------------------------------------------------------------------------*/
FoamFile
{
    version     2.0;
    format      ascii;
    class       volScalarField;
    object      thermo:specificHumidity;
}
// * * * * * * * * * * * * * * * * * * * * * * * * * * * * * * * * * * * * * //

dimensions      [0 0 0 0 0 0 0];

internalField   uniform 0;

boundaryField
{
    "(buildings|ground)" 
    {
        type            zeroGradient;
    }

    west 
    {
        type            userFixedHumidity;
        mode            relative;
        method          magnus;
        //humidity	0.5;
        humidity        {
        type	table;
        values	(
        	(0	0.782)
(300	0.788)
(600	0.795)
(900	0.791)
(1200	0.793)
(1500	0.794)
(1800	0.793)
(2100	0.791)
(2400	0.79)
(2700	0.789)
(3000	0.79)
(3300	0.794)
(3600	0.799)
(3900	0.797)
(4200	0.799)
(4500	0.802)
(4800	0.808)
(5100	0.81)
(5400	0.814)
(5700	0.817)
(6000	0.819)
(6300	0.823)
(6600	0.826)
(6900	0.829)
(7200	0.833)
(7500	0.835)
(7800	0.837)
(8100	0.839)
(8400	0.839)
(8700	0.839)
(9000	0.843)
(9300	0.846)
(9600	0.847)
(9900	0.848)
(10200	0.85)
(10500	0.853)
(10800	0.858)
(11100	0.857)
(11400	0.862)
(11700	0.864)
(12000	0.869)
(12300	0.87)
(12600	0.875)
(12900	0.877)
(13200	0.88)
(13500	0.881)
(13800	0.883)
(14100	0.887)
(14400	0.889)
(14700	0.891)
(15000	0.891)
(15300	0.893)
(15600	0.892)
(15900	0.891)
(16200	0.892)
(16500	0.89)
(16800	0.89)
(17100	0.889)
(17400	0.888)
(17700	0.889)
(18000	0.887)
(18300	0.887)
(18600	0.888)
(18900	0.888)
(19200	0.887)
(19500	0.888)
(19800	0.888)
(20100	0.892)
(20400	0.891)
(20700	0.893)
(21000	0.894)
(21300	0.896)
(21600	0.894)
        );
        }
        value           uniform 0.0;
    }

    east
    {
        type            zeroGradient;
    }

    "(north|south|top)"
    {
        type            slip;
    }


}

// ************************************************************************* //
